
     RDKit          3D

 35 33  0  0  0  0  0  0  0  0999 V2000
   -0.6602   -0.4984   -0.4544 C   0  0  0  0  0  0  0  0  0  0  0  0
   -0.4988    0.9105    0.0889 C   0  0  0  0  0  0  0  0  0  0  0  0
   -0.4601    1.9131   -0.9473 C   0  0  0  0  0  0  0  0  0  0  0  0
    0.0685    3.1108   -0.5616 O   0  0  0  0  0  0  0  0  0  0  0  0
   -0.9185    1.7608   -2.0795 O   0  0  0  0  0  0  0  0  0  0  0  0
    0.0018    4.1624   -1.5139 C   0  0  0  0  0  0  0  0  0  0  0  0
   -1.0370    4.4498   -1.6913 H   0  0  0  0  0  0  0  0  0  0  0  0
    0.4460    3.8467   -2.4605 H   0  0  0  0  0  0  0  0  0  0  0  0
    0.5581    4.9899   -1.0818 H   0  0  0  0  0  0  0  0  0  0  0  0
    0.0121   -1.1689    0.0833 H   0  0  0  0  0  0  0  0  0  0  0  0
   -0.3905   -0.4862   -1.5156 H   0  0  0  0  0  0  0  0  0  0  0  0
   -1.5948    1.3044    0.8196 H   0  0  0  0  0  0  0  0  0  0  0  0
    0.5145    1.0367    1.2454 C   0  0  2  0  0  0  0  0  0  0  0  0
    0.6657    2.1112    1.4278 H   0  0  0  0  0  0  0  0  0  0  0  0
    1.8397    0.4334    0.8588 C   0  0  0  0  0  0  0  0  0  0  0  0
    2.6766    1.1143   -0.0252 C   0  0  0  0  0  0  0  0  0  0  0  0
    3.8747    0.5629   -0.4213 C   0  0  0  0  0  0  0  0  0  0  0  0
    4.2478   -0.6879    0.0710 C   0  0  0  0  0  0  0  0  0  0  0  0
    3.4265   -1.3768    0.9600 C   0  0  0  0  0  0  0  0  0  0  0  0
    2.2284   -0.8132    1.3469 C   0  0  0  0  0  0  0  0  0  0  0  0
    2.3798    2.0842   -0.3915 H   0  0  0  0  0  0  0  0  0  0  0  0
    4.5357    1.0800   -1.0994 H   0  0  0  0  0  0  0  0  0  0  0  0
    3.7444   -2.3375    1.3348 H   0  0  0  0  0  0  0  0  0  0  0  0
    1.5908   -1.3142    2.0574 H   0  0  0  0  0  0  0  0  0  0  0  0
    5.4880   -1.2605   -0.3321 N   0  0  0  0  0  0  0  0  0  0  0  0
    6.1969   -0.6302   -1.1015 O   0  0  0  0  0  0  0  0  0  0  0  0
    5.7900   -2.3594    0.1065 O   0  0  0  0  0  0  0  0  0  0  0  0
    0.0345    0.4104    2.4152 O   0  0  0  0  0  0  0  0  0  0  0  0
   -0.8304    0.8057    2.6173 H   0  0  0  0  0  0  0  0  0  0  0  0
   -2.4989    1.5998    1.6531 O   0  0  0  0  0  0  0  0  0  0  0  0
   -2.7551    2.9551    1.6150 C   0  0  0  0  0  0  0  0  0  0  0  0
   -3.0606    3.2850    0.6084 H   0  0  0  0  0  0  0  0  0  0  0  0
   -3.5721    3.1844    2.3093 H   0  0  0  0  0  0  0  0  0  0  0  0
   -1.8767    3.5497    1.9100 H   0  0  0  0  0  0  0  0  0  0  0  0
   -2.0206   -1.1230   -0.3877 R   0  0  0  0  0  0  0  0  0  0  0  0
  1  2  1  0
  1 10  1  0
  1 11  1  0
  2  3  1  0
  2 13  1  0
  3  4  1  0
  3  5  2  0
  4  6  1  0
  6  7  1  0
  6  8  1  0
  6  9  1  0
 13 14  1  1
 13 15  1  0
 13 28  1  0
 15 16  2  0
 15 20  1  0
 16 17  1  0
 16 21  1  0
 17 18  2  0
 17 22  1  0
 18 19  1  0
 18 25  1  0
 19 20  2  0
 19 23  1  0
 20 24  1  0
 25 26  1  0
 25 27  2  0
 28 29  1  0
 30 31  1  0
 31 32  1  0
 31 33  1  0
 31 34  1  0
  1 35  1  0
M  CHG  5   2  -1  12   1  25   1  26  -1  30  -1
M  ISO  1  35   1
M  END
$$$$
